
**** 11/05/20 15:33:45 ******* PSpice Lite (March 2016) ******* ID# 10813 ****

 ** Profile: "SCHEMATIC1-lab9-1"  [ C:\Users\crist\Documents\CSUN\ECE240\PSPICE\LAB9\lab9-1-PSpiceFiles\SCHEMATIC1\lab9-1.sim ] 


 ****     CIRCUIT DESCRIPTION


******************************************************************************




** Creating circuit file "lab9-1.cir" 
** WARNING: THIS AUTOMATICALLY GENERATED FILE MAY BE OVERWRITTEN BY SUBSEQUENT SIMULATIONS

*Libraries: 
* Profile Libraries :
* Local Libraries :
* From [PSPICE NETLIST] section of C:\SPB_DATA\cdssetup\OrCAD_PSpice\17.2.0\PSpice.ini file:
.lib "nomd.lib" 

*Analysis directives: 
.TRAN  0 3ms 0 1us 
.OPTIONS ADVCONV
.PROBE64 V(alias(*)) I(alias(*)) W(alias(*)) D(alias(*)) NOISE(alias(*)) 
.INC "..\SCHEMATIC1.net" 



**** INCLUDING SCHEMATIC1.net ****
* source LAB9-1
V_Vs(t)         N00128 0  
+PULSE 1V -1V 0 0 0 .25ms .5ms
R_R         N00128 N00135  470 TC=0,0 
C_C         0 N00135  100nF  TC=0,0 

**** RESUMING lab9-1.cir ****
.END

ERROR(ORPSIM-15142): Node t is floating

ERROR(ORPSIM-15142): Node N00128 is floating

ERROR(ORPSIM-15142): Node N00135 is floating
