
**** 12/05/20 15:10:16 ******* PSpice Lite (March 2016) ******* ID# 10813 ****

 ** Profile: "SCHEMATIC1-lab12"  [ c:\users\crist\documents\csun\ece240\pspice\lab12-pspicefiles\schematic1\lab12.sim ] 


 ****     CIRCUIT DESCRIPTION


******************************************************************************




** Creating circuit file "lab12.cir" 
** WARNING: THIS AUTOMATICALLY GENERATED FILE MAY BE OVERWRITTEN BY SUBSEQUENT SIMULATIONS

*Libraries: 
* Profile Libraries :
* Local Libraries :
* From [PSPICE NETLIST] section of C:\SPB_DATA\cdssetup\OrCAD_PSpice\17.2.0\PSpice.ini file:
.lib "nomd.lib" 

*Analysis directives: 
.TRAN  0 3ms 0 1us 
.OPTIONS ADVCONV
.PROBE64 V(alias(*)) I(alias(*)) W(alias(*)) D(alias(*)) NOISE(alias(*)) 
.INC "..\SCHEMATIC1.net" 



**** INCLUDING SCHEMATIC1.net ****
* source LAB12
V_V1         N00177 0  AC 0
+SIN 0 1 500 0 0 0
L_L1         N00177 N00184  68mH  
R_R1         N00184 N00188  1k TC=0,0 
C_C1         N00263 N00188  100n  TC=0,0 
R_R2         0 N00263  680 TC=0,0 

**** RESUMING lab12.cir ****
.END

**** 12/05/20 15:10:16 ******* PSpice Lite (March 2016) ******* ID# 10813 ****

 ** Profile: "SCHEMATIC1-lab12"  [ c:\users\crist\documents\csun\ece240\pspice\lab12-pspicefiles\schematic1\lab12.sim ] 


 ****     INITIAL TRANSIENT SOLUTION       TEMPERATURE =   27.000 DEG C


******************************************************************************



 NODE   VOLTAGE     NODE   VOLTAGE     NODE   VOLTAGE     NODE   VOLTAGE


(N00177)    0.0000 (N00184)    0.0000 (N00188)    0.0000 (N00263)    0.0000 




    VOLTAGE SOURCE CURRENTS
    NAME         CURRENT

    V_V1         0.000E+00

    TOTAL POWER DISSIPATION   0.00E+00  WATTS



          JOB CONCLUDED

**** 12/05/20 15:10:16 ******* PSpice Lite (March 2016) ******* ID# 10813 ****

 ** Profile: "SCHEMATIC1-lab12"  [ c:\users\crist\documents\csun\ece240\pspice\lab12-pspicefiles\schematic1\lab12.sim ] 


 ****     JOB STATISTICS SUMMARY


******************************************************************************



  Total job time (using Solver 1)   =         .06
