
**** 11/05/20 23:29:34 ******* PSpice Lite (March 2016) ******* ID# 10813 ****

 ** Profile: "SCHEMATIC1-lab10"  [ C:\Users\crist\Documents\CSUN\ECE240\PSPICE\LAB10\lab10-PSpiceFiles\SCHEMATIC1\lab10.sim ] 


 ****     CIRCUIT DESCRIPTION


******************************************************************************




** Creating circuit file "lab10.cir" 
** WARNING: THIS AUTOMATICALLY GENERATED FILE MAY BE OVERWRITTEN BY SUBSEQUENT SIMULATIONS

*Libraries: 
* Profile Libraries :
* Local Libraries :
* From [PSPICE NETLIST] section of C:\SPB_DATA\cdssetup\OrCAD_PSpice\17.2.0\PSpice.ini file:
.lib "nomd.lib" 

*Analysis directives: 
.TRAN  0 3ms 0 1us 
.OPTIONS ADVCONV
.PROBE64 V(alias(*)) I(alias(*)) W(alias(*)) D(alias(*)) NOISE(alias(*)) 
.INC "..\SCHEMATIC1.net" 



**** INCLUDING SCHEMATIC1.net ****
* source LAB10
V_V1         N00174 N00188  
+PULSE 5v 0 0 0 0 .25 .5
R_R1         N00174 N00181  1.5k TC=0,0 
C_C1         N00188 N00181  333.33nF  TC=0,0 

**** RESUMING lab10.cir ****
.END

ERROR(ORPSIM-15142): Node N00174 is floating

ERROR(ORPSIM-15142): Node N00188 is floating

ERROR(ORPSIM-15142): Node N00181 is floating
