
**** 09/23/20 22:57:12 ******* PSpice 17.4.0 (Nov 2018) ******* ID# 0 ********

 ** Profile: "SCHEMATIC1-LAB1_2"  [ C:\Users\crist\Documents\CSUN\ECE240\PSPICE\LAB1_2\lab1_2-pspicefiles\schematic1\lab1_2.sim ] 


 ****     CIRCUIT DESCRIPTION


******************************************************************************




** Creating circuit file "LAB1_2.cir" 
** WARNING: THIS AUTOMATICALLY GENERATED FILE MAY BE OVERWRITTEN BY SUBSEQUENT SIMULATIONS

*Libraries: 
* Profile Libraries :
* Local Libraries :
* From [PSPICE NETLIST] section of C:\SPB_DATA\cdssetup\OrCAD_PSpice\17.4.0\PSpice.ini file:
.lib "nom.lib" 

*Analysis directives: 
.TRAN  0 .30ms 0 .1ms 
.OPTIONS ADVCONV
.PROBE64 V(alias(*)) I(alias(*)) W(alias(*)) D(alias(*)) NOISE(alias(*)) 
.INC "..\SCHEMATIC1.net" 



**** INCLUDING SCHEMATIC1.net ****
* source LAB1_2
R_R1         N00119 N00126  5 TC=0,0 
R_R2         0 N00126  10 TC=0,0 
V_V1         N00119 0  
+PULSE 15V -15V 0 0 0 .5 ms 1 ms
-------------------------$
ERROR -- Expecting keyword STIMULUS, saw ms.


**** RESUMING LAB1_2.cir ****
.END
