
**** 11/14/20 12:52:34 ******* PSpice Lite (March 2016) ******* ID# 10813 ****

 ** Profile: "SCHEMATIC1-lab11-2"  [ c:\users\crist\documents\csun\ece240\pspice\lab11\lab11-2-pspicefiles\schematic1\lab11-2.sim ] 


 ****     CIRCUIT DESCRIPTION


******************************************************************************




** Creating circuit file "lab11-2.cir" 
** WARNING: THIS AUTOMATICALLY GENERATED FILE MAY BE OVERWRITTEN BY SUBSEQUENT SIMULATIONS

*Libraries: 
* Profile Libraries :
* Local Libraries :
* From [PSPICE NETLIST] section of C:\SPB_DATA\cdssetup\OrCAD_PSpice\17.2.0\PSpice.ini file:
.lib "nomd.lib" 

*Analysis directives: 
.TRAN  0 3ms 0 1us 
.OPTIONS ADVCONV
.PROBE64 V(alias(*)) I(alias(*)) W(alias(*)) D(alias(*)) NOISE(alias(*)) 
.INC "..\SCHEMATIC1.net" 



**** INCLUDING SCHEMATIC1.net ****
* source LAB11-2
L_L1         0 N00501  68mh  
V_V1         N00348 0  
+PULSE 2V -2V 0 0 0 .5ms 1ms
C_C1         0 N00501  .01uF  TC=0,0 
R_R1         N00501 N00348  560 TC=0,0 

**** RESUMING lab11-2.cir ****
.END

**** 11/14/20 12:52:34 ******* PSpice Lite (March 2016) ******* ID# 10813 ****

 ** Profile: "SCHEMATIC1-lab11-2"  [ c:\users\crist\documents\csun\ece240\pspice\lab11\lab11-2-pspicefiles\schematic1\lab11-2.sim ] 


 ****     INITIAL TRANSIENT SOLUTION       TEMPERATURE =   27.000 DEG C


******************************************************************************



 NODE   VOLTAGE     NODE   VOLTAGE     NODE   VOLTAGE     NODE   VOLTAGE


(N00348)    2.0000 (N00501)    0.0000 




    VOLTAGE SOURCE CURRENTS
    NAME         CURRENT

    V_V1        -3.571E-03

    TOTAL POWER DISSIPATION   7.14E-03  WATTS



          JOB CONCLUDED

**** 11/14/20 12:52:34 ******* PSpice Lite (March 2016) ******* ID# 10813 ****

 ** Profile: "SCHEMATIC1-lab11-2"  [ c:\users\crist\documents\csun\ece240\pspice\lab11\lab11-2-pspicefiles\schematic1\lab11-2.sim ] 


 ****     JOB STATISTICS SUMMARY


******************************************************************************



  Total job time (using Solver 1)   =         .02
