
**** 12/03/20 19:43:15 ******* PSpice Lite (March 2016) ******* ID# 10813 ****

 ** Profile: "SCHEMATIC1-lab13-1"  [ c:\users\crist\documents\csun\ece240\pspice\lab13\13-1\lab13-1-pspicefiles\schematic1\lab13-1.si


 ****     CIRCUIT DESCRIPTION


******************************************************************************




** Creating circuit file "lab13-1.cir" 
** WARNING: THIS AUTOMATICALLY GENERATED FILE MAY BE OVERWRITTEN BY SUBSEQUENT SIMULATIONS

*Libraries: 
* Profile Libraries :
* Local Libraries :
* From [PSPICE NETLIST] section of C:\SPB_DATA\cdssetup\OrCAD_PSpice\17.2.0\PSpice.ini file:
.lib "nomd.lib" 

*Analysis directives: 
.AC DEC 60 10 1Meg
.OPTIONS ADVCONV
.PROBE64 V(alias(*)) I(alias(*)) W(alias(*)) D(alias(*)) NOISE(alias(*)) 
.INC "..\SCHEMATIC1.net" 



**** INCLUDING SCHEMATIC1.net ****
* source LAB13-1
V_V1         N00110 0  AC 1
+SIN 0 1 6000 0 0 0
C_C1         0 N00117  10nF  TC=0,0 
R_R1         N00110 N00117  5.1k TC=0,0 

**** RESUMING lab13-1.cir ****
.END

**** 12/03/20 19:43:15 ******* PSpice Lite (March 2016) ******* ID# 10813 ****

 ** Profile: "SCHEMATIC1-lab13-1"  [ c:\users\crist\documents\csun\ece240\pspice\lab13\13-1\lab13-1-pspicefiles\schematic1\lab13-1.si


 ****     SMALL SIGNAL BIAS SOLUTION       TEMPERATURE =   27.000 DEG C


******************************************************************************



 NODE   VOLTAGE     NODE   VOLTAGE     NODE   VOLTAGE     NODE   VOLTAGE


(N00110)    0.0000 (N00117)    0.0000 




    VOLTAGE SOURCE CURRENTS
    NAME         CURRENT

    V_V1         0.000E+00

    TOTAL POWER DISSIPATION   0.00E+00  WATTS



          JOB CONCLUDED

**** 12/03/20 19:43:15 ******* PSpice Lite (March 2016) ******* ID# 10813 ****

 ** Profile: "SCHEMATIC1-lab13-1"  [ c:\users\crist\documents\csun\ece240\pspice\lab13\13-1\lab13-1-pspicefiles\schematic1\lab13-1.si


 ****     JOB STATISTICS SUMMARY


******************************************************************************



  Total job time (using Solver 1)   =         .02
