
**** 10/22/20 22:47:51 ******* PSpice Lite (March 2016) ******* ID# 10813 ****

 ** Profile: "SCHEMATIC1-lab8-2"  [ C:\Users\crist\Documents\CSUN\ECE240\PSPICE\LAB8\lab8-2-PSpiceFiles\SCHEMATIC1\lab8-2.sim ] 


 ****     CIRCUIT DESCRIPTION


******************************************************************************




** Creating circuit file "lab8-2.cir" 
** WARNING: THIS AUTOMATICALLY GENERATED FILE MAY BE OVERWRITTEN BY SUBSEQUENT SIMULATIONS

*Libraries: 
* Profile Libraries :
* Local Libraries :
* From [PSPICE NETLIST] section of C:\SPB_DATA\cdssetup\OrCAD_PSpice\17.2.0\PSpice.ini file:
.lib "nomd.lib" 

*Analysis directives: 
.TRAN  0 3ms 0 1us 
.OPTIONS ADVCONV
.PROBE64 V(alias(*)) I(alias(*)) W(alias(*)) D(alias(*)) NOISE(alias(*)) 
.INC "..\SCHEMATIC1.net" 



**** INCLUDING SCHEMATIC1.net ****
* source LAB8-2
V_V3         N01479 0 -15Vdc
X_U1         N01573 N01627 N01469 N01649 N01623 uA741
V_V2         N01679 0 15Vdc
R_R4         N01649 N01679  56k TC=0,0 
V_V1         N01573 0  AC 0
+SIN 0 .3V 1kHz 0 0 0
R_R2         N01469 N01479  56k TC=0,0 
R_R1         N02149 N01627  10k TC=0,0 
R_R5         N01627 N01623  100k TC=0,0 

**** RESUMING lab8-2.cir ****
.END

ERROR(ORPSIM-15141): Less than 2 connections at node N02149.
