
**** 10/15/20 18:45:46 ******* PSpice Lite (March 2016) ******* ID# 10813 ****

 ** Profile: "SCHEMATIC1-lab06"  [ c:\users\crist\documents\csun\ece240\pspice\lab6\lab06-PSpiceFiles\SCHEMATIC1\lab06.sim ] 


 ****     CIRCUIT DESCRIPTION


******************************************************************************




** Creating circuit file "lab06.cir" 
** WARNING: THIS AUTOMATICALLY GENERATED FILE MAY BE OVERWRITTEN BY SUBSEQUENT SIMULATIONS

*Libraries: 
* Profile Libraries :
* Local Libraries :
* From [PSPICE NETLIST] section of C:\SPB_DATA\cdssetup\OrCAD_PSpice\17.2.0\PSpice.ini file:
.lib "nomd.lib" 

*Analysis directives: 
.TRAN  0 3ms 0 1us 
.OPTIONS ADVCONV
.PROBE64 V(alias(*)) I(alias(*)) W(alias(*)) D(alias(*)) NOISE(alias(*)) 
.INC "..\SCHEMATIC1.net" 



**** INCLUDING SCHEMATIC1.net ****
* source LAB06
V_V1         N00161 N00182 10Vdc
R_R1         N00161 N00168  1k TC=0,0 
R_R2         N00182 N00175  1k TC=0,0 
R_R3         N00175 N00168  1k TC=0,0 
R_R4         N00168 N00201  1k TC=0,0 
R_R5         N00175 N00208  1k TC=0,0 

**** RESUMING lab06.cir ****
.END

ERROR(ORPSIM-15141): Less than 2 connections at node N00201.

ERROR(ORPSIM-15141): Less than 2 connections at node N00208.

ERROR(ORPSIM-15142): Node N00161 is floating

ERROR(ORPSIM-15142): Node N00182 is floating

ERROR(ORPSIM-15142): Node N00168 is floating

ERROR(ORPSIM-15142): Node N00175 is floating

ERROR(ORPSIM-15142): Node N00201 is floating

ERROR(ORPSIM-15142): Node N00208 is floating
