
**** 10/16/20 00:26:08 ******* PSpice Lite (March 2016) ******* ID# 10813 ****

 ** Profile: "SCHEMATIC1-lab6-7"  [ C:\Users\crist\Documents\CSUN\ECE240\PSPICE\LAB6\Lab6-6-PSpiceFiles\SCHEMATIC1\lab6-7.sim ] 


 ****     CIRCUIT DESCRIPTION


******************************************************************************




** Creating circuit file "lab6-7.cir" 
** WARNING: THIS AUTOMATICALLY GENERATED FILE MAY BE OVERWRITTEN BY SUBSEQUENT SIMULATIONS

*Libraries: 
* Profile Libraries :
* Local Libraries :
* From [PSPICE NETLIST] section of C:\SPB_DATA\cdssetup\OrCAD_PSpice\17.2.0\PSpice.ini file:
.lib "nomd.lib" 

*Analysis directives: 
.TRAN  0 3ms 0 1us 
.OPTIONS ADVCONV
.PROBE64 V(alias(*)) I(alias(*)) W(alias(*)) D(alias(*)) NOISE(alias(*)) 
.INC "..\SCHEMATIC1.net" 



**** INCLUDING SCHEMATIC1.net ****
* source LAB6-6
V_V1         N00131 0 5Vdc
V_V2         N00152 0 10Vdc
R_R1         N00131 N00152  2.7k TC=0,0 
R_R2         N00131 N00138  1k TC=0,0 
R_R3         N00138 N00152  3,3k TC=0,0 
------------------------------$
ERROR(ORPSIM-16015): Unknown parameter.
R_R4         0 N00138  1k TC=0,0 

**** RESUMING lab6-7.cir ****
.END
