
**** 11/19/20 18:12:52 ******* PSpice Lite (March 2016) ******* ID# 10813 ****

 ** Profile: "SCHEMATIC1-lab11"  [ c:\users\crist\documents\csun\ece240\pspice\lab11\lab11-pspicefiles\schematic1\lab11.sim ] 


 ****     CIRCUIT DESCRIPTION


******************************************************************************




** Creating circuit file "lab11.cir" 
** WARNING: THIS AUTOMATICALLY GENERATED FILE MAY BE OVERWRITTEN BY SUBSEQUENT SIMULATIONS

*Libraries: 
* Profile Libraries :
* Local Libraries :
* From [PSPICE NETLIST] section of C:\SPB_DATA\cdssetup\OrCAD_PSpice\17.2.0\PSpice.ini file:
.lib "nomd.lib" 

*Analysis directives: 
.TRAN  0 3ms 0 1us 
.OPTIONS ADVCONV
.PROBE64 V(alias(*)) I(alias(*)) W(alias(*)) D(alias(*)) NOISE(alias(*)) 
.INC "..\SCHEMATIC1.net" 



**** INCLUDING SCHEMATIC1.net ****
* source LAB11
V_V1         N00153 0  
+PULSE 1V -1V 0 0 0 .5ms 1ms
L_L1         N00160 N00164  68mh  
C_C1         N00153 N00160  .01uF  TC=0,0 
R_R1         0 N00164  6.8k TC=0,0 

**** RESUMING lab11.cir ****
.END

**** 11/19/20 18:12:52 ******* PSpice Lite (March 2016) ******* ID# 10813 ****

 ** Profile: "SCHEMATIC1-lab11"  [ c:\users\crist\documents\csun\ece240\pspice\lab11\lab11-pspicefiles\schematic1\lab11.sim ] 


 ****     INITIAL TRANSIENT SOLUTION       TEMPERATURE =   27.000 DEG C


******************************************************************************



 NODE   VOLTAGE     NODE   VOLTAGE     NODE   VOLTAGE     NODE   VOLTAGE


(N00153)    1.0000 (N00160)    0.0000 (N00164)    0.0000 




    VOLTAGE SOURCE CURRENTS
    NAME         CURRENT

    V_V1         0.000E+00

    TOTAL POWER DISSIPATION   0.00E+00  WATTS



          JOB CONCLUDED

**** 11/19/20 18:12:52 ******* PSpice Lite (March 2016) ******* ID# 10813 ****

 ** Profile: "SCHEMATIC1-lab11"  [ c:\users\crist\documents\csun\ece240\pspice\lab11\lab11-pspicefiles\schematic1\lab11.sim ] 


 ****     JOB STATISTICS SUMMARY


******************************************************************************



  Total job time (using Solver 1)   =         .02
