
**** 12/05/20 15:16:46 ******* PSpice Lite (March 2016) ******* ID# 10813 ****

 ** Profile: "SCHEMATIC1-lab13-3"  [ c:\users\crist\documents\csun\ece240\pspice\lab13\13-2\lab13-2case3-pspicefiles\schematic1\lab13


 ****     CIRCUIT DESCRIPTION


******************************************************************************




** Creating circuit file "lab13-3.cir" 
** WARNING: THIS AUTOMATICALLY GENERATED FILE MAY BE OVERWRITTEN BY SUBSEQUENT SIMULATIONS

*Libraries: 
* Profile Libraries :
* Local Libraries :
* From [PSPICE NETLIST] section of C:\SPB_DATA\cdssetup\OrCAD_PSpice\17.2.0\PSpice.ini file:
.lib "nomd.lib" 

*Analysis directives: 
.AC DEC 60 10 1Meg
.OPTIONS ADVCONV
.PROBE64 V(alias(*)) I(alias(*)) W(alias(*)) D(alias(*)) NOISE(alias(*)) 
.INC "..\SCHEMATIC1.net" 



**** INCLUDING SCHEMATIC1.net ****
* source LAB13-2CASE3
V_V1         N00260 0  AC 1
+SIN 0 1 10k 0 0 0
R_R1         0 N00276  3.3k TC=0,0 
L_L1         N00260 N00276  68mH  

**** RESUMING lab13-3.cir ****
.END

**** 12/05/20 15:16:46 ******* PSpice Lite (March 2016) ******* ID# 10813 ****

 ** Profile: "SCHEMATIC1-lab13-3"  [ c:\users\crist\documents\csun\ece240\pspice\lab13\13-2\lab13-2case3-pspicefiles\schematic1\lab13


 ****     SMALL SIGNAL BIAS SOLUTION       TEMPERATURE =   27.000 DEG C


******************************************************************************



 NODE   VOLTAGE     NODE   VOLTAGE     NODE   VOLTAGE     NODE   VOLTAGE


(N00260)    0.0000 (N00276)    0.0000 




    VOLTAGE SOURCE CURRENTS
    NAME         CURRENT

    V_V1         0.000E+00

    TOTAL POWER DISSIPATION   0.00E+00  WATTS



          JOB CONCLUDED

**** 12/05/20 15:16:46 ******* PSpice Lite (March 2016) ******* ID# 10813 ****

 ** Profile: "SCHEMATIC1-lab13-3"  [ c:\users\crist\documents\csun\ece240\pspice\lab13\13-2\lab13-2case3-pspicefiles\schematic1\lab13


 ****     JOB STATISTICS SUMMARY


******************************************************************************



  Total job time (using Solver 1)   =        0.00
